test/data/b4gic.json
{
  "area": [], 
  "baseMVA": 100.0,
  "branch": {
    "1":{
      "angmax": 30.0, 
      "angmin": -30.0, 
      "baseMVA": 100.0, 
      "br_b": 0.0, 
      "br_r": 0.0001, 
      "br_rdc": 0.0001, 
      "br_status": 1, 
      "br_x": 0.004, 
      "config": "gwye-delta", 
      "data": {}, 
      "dc_brid": null, 
      "f_bus": 1, 
      "gmd_br_hi": 1, 
      "gmd_br_lo": null, 
      "gmd_k": 1.793, 
      "gmd_vdc": 0.0, 
      "hi_bus": 1, 
      "index": 1, 
      "len_km": 0.0, 
      "lo_bus": 3, 
      "name": "xf1", 
      "rate_a": 9000.0, 
      "rate_b": 0.0, 
      "rate_c": 0.0, 
      "rdc_hi": 0.3, 
      "rdc_lo": null, 
      "shift": 0.0, 
      "sub": 1, 
      "t_bus": 3,
      "tap": 1.0,
      "type": "xf"
    }, 
    "2":{
      "angmax": 30.0, 
      "angmin": -30.0, 
      "baseMVA": 100.0, 
      "br_b": 0.0, 
      "br_r": 0.000513, 
      "br_rdc": 0.000513, 
      "br_status": 1, 
      "br_x": 0.01, 
      "data": {}, 
      "dist_e_km": 170.78806587354077, 
      "dist_n_km": 0.0, 
      "f_bus": 1, 
      "gmd_br": 2, 
      "gmd_r_Ohms": 3.0, 
      "gmd_vdc": 170.78806587354077, 
      "hi_bus": 1, 
      "index": 2, 
      "len_km": 170.78806587354077, 
      "lo_bus": 2, 
      "name": "br1", 
      "rate_a": 9000.0, 
      "rate_b": 0.0, 
      "rate_c": 0.0, 
      "shift": 0.0, 
      "sub": null, 
      "t_bus": 2, 
      "tap": 1.0, 
      "type": "line"
    }, 
    "3":{
      "angmax": 30.0, 
      "angmin": -30.0, 
      "baseMVA": 100.0, 
      "br_b": 0.0, 
      "br_r": 0.0001, 
      "br_rdc": 0.0001, 
      "br_status": 1, 
      "br_x": 0.004, 
      "config": "gwye-delta", 
      "data": {}, 
      "dc_brid": null, 
      "f_bus": 2, 
      "gmd_br_hi": 3, 
      "gmd_br_lo": null, 
      "gmd_k": 1.793, 
      "gmd_vdc": 0.0, 
      "hi_bus": 2, 
      "index": 3, 
      "len_km": 0.0, 
      "lo_bus": 4, 
      "name": "xf2", 
      "rate_a": 9000.0, 
      "rate_b": 0.0, 
      "rate_c": 0.0, 
      "rdc_hi": 0.3, 
      "rdc_lo": null, 
      "shift": 0.0, 
      "sub": 2, 
      "t_bus": 4, 
      "tap": 1.0, 
      "type": "xf"
    }
  }, 
  "bus": {
    "1":{
      "area": 1, 
      "base_kv": 765.0, 
      "bs": 0.0, 
      "bus_i": 1, 
      "bus_type": 3, 
      "gmd_baseMVA": 100.0, 
      "gmd_bus": 3, 
      "gmd_gs": 0.0, 
      "gmd_k": 0.001, 
      "gmd_neu_bus": null, 
      "gs": 0.0, 
      "index": 1, 
      "lat": 40.0, 
      "lon": -89.0, 
      "name": "bus1", 
      "nid": 1, 
      "pd": 0.0, 
      "qd": 0.0, 
      "sid": 1, 
      "sub": 1, 
      "type": "bus", 
      "va": -0.0, 
      "vm": 1.1, 
      "vmax": 1.3, 
      "vmin": 0.7, 
      "zone": 1
    }, 
    "2":{
      "area": 1, 
      "base_kv": 765.0, 
      "bs": 0.0, 
      "bus_i": 2, 
      "bus_type": 3, 
      "gmd_baseMVA": 100.0, 
      "gmd_bus": 4, 
      "gmd_gs": 0.0, 
      "gmd_k": 0.001, 
      "gmd_neu_bus": null, 
      "gs": 0.0, 
      "index": 2, 
      "lat": 40.0, 
      "lon": -87.0, 
      "name": "bus2", 
      "nid": 2, 
      "pd": 0.0, 
      "qd": 0.0, 
      "sid": 2, 
      "sub": 2, 
      "type": "bus", 
      "va": -0.0, 
      "vm": 1.1, 
      "vmax": 1.3, 
      "vmin": 0.7, 
      "zone": 1
    }, 
    "3":{
      "area": 1, 
      "base_kv": 20.0, 
      "bs": 0.0, 
      "bus_i": 3, 
      "bus_type": 3, 
      "gmd_baseMVA": 100.0, 
      "gmd_bus": 5, 
      "gmd_gs": 0.0, 
      "gmd_k": 0.001, 
      "gmd_neu_bus": null, 
      "gs": 0.0, 
      "index": 3, 
      "lat": 40.0, 
      "lon": -89.0, 
      "name": "bus3", 
      "nid": 3, 
      "pd": 1000.0, 
      "qd": 200.0, 
      "sid": 1, 
      "sub": 1, 
      "type": "bus", 
      "va": -0.0, 
      "vm": 1.1, 
      "vmax": 1.3, 
      "vmin": 0.7, 
      "zone": 1
    }, 
    "4":{
      "area": 1, 
      "base_kv": 20.0, 
      "bs": 0.0, 
      "bus_i": 4, 
      "bus_type": 3, 
      "gmd_baseMVA": 100.0, 
      "gmd_bus": 6, 
      "gmd_gs": 0.0, 
      "gmd_k": 0.001, 
      "gmd_neu_bus": null, 
      "gs": 0.0, 
      "index": 4, 
      "lat": 40.0, 
      "lon": -87.0, 
      "name": "bus4", 
      "nid": 4, 
      "pd": 0.0, 
      "qd": 0.0, 
      "sid": 2, 
      "sub": 2, 
      "type": "bus", 
      "va": -0.0, 
      "vm": 1.1, 
      "vmax": 1.0, 
      "vmin": 0.7, 
      "zone": 1
    }
  }, 
  "dcline": {}, 
  "gen": {
    "1":{
      "apf": 0.0, 
      "cost": [
        0.11, 
        5.0, 
        0.0
      ], 
      "model": 2, 
      "ncost": 3, 
      "shutdown": 0.0, 
      "startup": 0.0,
      "gen_bus": 4, 
      "gen_status": 1, 
      "index": 1, 
      "mbase": 100.0, 
      "name": "gen1", 
      "pc1": 0.0, 
      "pc2": 0.0, 
      "pg": 0.0, 
      "pmax": 2000.0, 
      "pmin": 0.0, 
      "qc1max": 0.0, 
      "qc1min": 0.0, 
      "qc2max": 0.0, 
      "qc2min": 0.0, 
      "qg": 0.0, 
      "qmax": 2000.0, 
      "qmin": -2000.0, 
      "ramp_30": 0.0, 
      "ramp_agc": 0.0, 
      "ramp_q": -1000.0, 
      "type": "gen", 
      "vg": 1.1
    }
  }, 
  "gmd_branch": {
    "1":{
      "br_r": 0.09999999999999999, 
      "br_status": 1, 
      "br_v": 0.0, 
      "data": {}, 
      "f_bus": 3, 
      "index": 1, 
      "len_km": 0.0, 
      "name": "dc_xf1_hi", 
      "parent_index": 1, 
      "parent_name": "xf1", 
      "t_bus": 1, 
      "type": "gwye winding high-side"
    }, 
    "2":{
      "br_r": 1.0007347500000001, 
      "br_status": 1, 
      "br_v": 170.78806587354077, 
      "data": {}, 
      "f_bus": 3, 
      "index": 2, 
      "len_km": 170.78806587354077, 
      "name": "dc_br1", 
      "parent_index": 2, 
      "parent_name": "br1", 
      "t_bus": 4, 
      "type": "line"
    }, 
    "3":{
      "br_r": 0.09999999999999999, 
      "br_status": 1, 
      "br_v": 0.0, 
      "data": {}, 
      "f_bus": 4, 
      "index": 3, 
      "len_km": 0.0, 
      "name": "dc_xf2_hi", 
      "parent_index": 3, 
      "parent_name": "xf2", 
      "t_bus": 2, 
      "type": "gwye winding high-side"
    }
  }, 
  "gmd_bus": {
    "1":{
      "bus_i": 1, 
      "g_gnd": 5.0, 
      "index": 1, 
      "name": "dc_sub1", 
      "parent_index": 1, 
      "parent_name": "sub1", 
      "parent_type": "sub"
    }, 
    "2":{
      "bus_i": 2, 
      "g_gnd": 5.0, 
      "index": 2, 
      "name": "dc_sub2", 
      "parent_index": 2, 
      "parent_name": "sub2", 
      "parent_type": "sub"
    }, 
    "3":{
      "bus_i": 3, 
      "g_gnd": 0.0, 
      "index": 3, 
      "name": "dc_bus1", 
      "parent_index": 1, 
      "parent_name": "bus1", 
      "parent_type": "bus"
    }, 
    "4":{
      "bus_i": 4, 
      "g_gnd": 0.0, 
      "index": 4, 
      "name": "dc_bus2", 
      "parent_index": 2, 
      "parent_name": "bus2", 
      "parent_type": "bus"
    }, 
    "5":{
      "bus_i": 5, 
      "g_gnd": 0.0, 
      "index": 5, 
      "name": "dc_bus3", 
      "parent_index": 3, 
      "parent_name": "bus3", 
      "parent_type": "bus"
    }, 
    "6":{
      "bus_i": 6, 
      "g_gnd": 0.0, 
      "index": 6, 
      "name": "dc_bus4", 
      "parent_index": 4, 
      "parent_name": "bus4", 
      "parent_type": "bus"
    }
  }, 
  "gmd_e_field_dir": 90.0, 
  "gmd_e_field_mag": 1.0, 
  "name": "b4gic", 
  "sub": {
    "1":{
      "bus_i": 1, 
      "dc_bus_Factory": null, 
      "gmd_bus": 1, 
      "gmd_rs_Ohms": 0.2, 
      "index": 1, 
      "lat": 40.0, 
      "lon": -89.0, 
      "name": "sub1", 
      "sid": 1, 
      "type": "sub"
    }, 
    "2":{
      "bus_i": 2, 
      "dc_bus_Factory": null, 
      "gmd_bus": 2, 
      "gmd_rs_Ohms": 0.2, 
      "index": 2, 
      "lat": 40.0, 
      "lon": -87.0, 
      "name": "sub2", 
      "sid": 2, 
      "type": "sub"
    }
  }, 
  "version": "nestay-0.1"
}